Projetos/Projeto_3–Solucao_do_Fluxo_de_Potencia/Anarede/PROJETO_3.PWF
TITU
                                                                                
DBAR
(Num)OETGb(   nome   )Gl( V)( A)( Pg)( Qg)( Qn)( Qm)(Bc  )( Pl)( Ql)( Sh)Are(Vf)M(1)(2)(3)(4)(5)(6)(7)(8)(9)(10
    1 L2  Barra-1       1000  0.234.9-45.8-9999 500.                       11000                                   
    2 L1  Barra-2       1000-5.9  40.59.88 -40.  80.       21.7 12.7       11000                                   
    3 L1  Barra-3       1000-15.   0.65.46   0.  70.       94.2  19.       11000                                   
    4 L   Barra-4        970-12.                           47.8 -3.9       11000                                   
    5 L   Barra-5        968-9.9                            7.6  1.6       11000                                   
    6 L1  Barra-6       1000-16.   0.7.828  -6.  40.       11.2  7.5       11000                                   
    7 L   Barra-7        990-15.                                           11000                                   
    8 L1  Barra-8       1000-15.   0.5.436  -6.  40.                       11000                                   
    9 L   Barra-9        985-17.                           29.5 16.6  19.  11000                                   
   10 L   Barra-10       980-17.                             9.  5.8       11000                                   
   11 L   Barra-11       986-17.                            3.5  1.8       11000                                   
   12 L   Barra-12       984-17.                            6.1  1.6       11000                                   
   13 L   Barra-13       979-17.                           13.5  5.8       11000                                   
   14 L   Barra-14       963-18.                           14.9   5.       11000                                   
99999
DLIN
(De )d O d(Pa )NcEP ( R% )( X% )(Mvar)(Tap)(Tmn)(Tmx)(Phs)(Bc  )(Cn)(Ce)Ns(Cq)(1)(2)(3)(4)(5)(6)(7)(8)(9)(10
    1         2 1    1.938 5.917  5.28                          99999999  9999                                
    1         5 2    5.40322.304  4.92                          99999999  9999                                
    2         3 3    4.69919.797  4.38                          99999999  9999                                
    2         4 4    5.81117.632  3.74                          99999999  9999                                
    2         5 5    5.69517.388   3.4                          99999999  9999                                
    3         4 6    6.70117.103  3.46                          99999999  9999                                
    4         5 7    1.335 4.211  1.28                          99999999  9999                                
    4         7 8         20.912       .978                     99999999  9999                                
    4         9 9         55.618       .969                     99999999  9999                                
    5         610         25.202       .932                     99999999  9999                                
    6        1111    9.498 19.89                                99999999  9999                                
    6        1212   12.29125.581                                99999999  9999                                
    6        1313    6.61513.027                                99999999  9999                                
    7         814         17.615                                99999999  9999                                
    7         915         11.001                                99999999  9999                                
    9        1016    3.181  8.45                                99999999  9999                                
    9        1417   12.71127.038                                99999999  9999                                
   10        1118    8.20519.207                                99999999  9999                                
   12        1319   22.09219.988                                99999999  9999                                
   13        1420   17.09334.802                                99999999  9999                                
99999
FIM
